Referencia/OpenDSS/Examples/InverterModels/PVSystem2/InvControl2/volt-watt/SnapShot_voltwatt_KVARATINGPU_Power_elem_kVA.txt

CIRCUIT ELEMENT POWER FLOW

(Power Flow into element from indicated Bus)

Power Delivery Elements

  Bus Phase     kW     +j   kvar         kVA         PF

ELEMENT = "Vsource.SOURCE"
A        1       287.5 +j     -0.0      287.5      -1.0000
A        2       287.5 +j     -0.0      287.5      -1.0000
A        3       287.5 +j     -0.0      287.5      -1.0000
   TERMINAL TOTAL   862.5 +j     -0.0      862.5      -1.0000
A        0         0.0 +j      0.0        0.0       1.0000
A        0         0.0 +j      0.0        0.0       1.0000
A        0         0.0 +j      0.0        0.0       1.0000
   TERMINAL TOTAL     0.0 +j      0.0        0.0       1.0000

= = = = = = = = = = = = = = = = = = =  = = = = = = = = = = =  = =

Power Conversion Elements

  Bus Phase     kW   +j  kvar         kVA         PF

ELEMENT = "PVSystem.PV"
A        1    -287.5 +j   -0.0      287.5       1.0000
A        2    -287.5 +j   -0.0      287.5       1.0000
A        3    -287.5 +j   -0.0      287.5       1.0000
A        0       0.0 +j    0.0        0.0       1.0000
  TERMINAL TOTAL   -862.5 +j     -0.0      862.5       1.0000


Total Circuit Losses =    0.0 +j    0.0
